#======================================================================

# CRYSTAL DATA

#----------------------------------------------------------------------

_pd_phase_name                         'TiO2 Anatase'
_cell_length_a                         3.7842(13)
_cell_length_b                         3.7842(13)
_cell_length_c                         9.5146(15)
_cell_angle_alpha                      90
_cell_angle_beta                       90
_cell_angle_gamma                      90
_symmetry_space_group_name_H-M         'I 41/a m d'
_symmetry_Int_Tables_number            141

loop_
_symmetry_equiv_pos_as_xyz
   'x, y, z'
   '-x+1/2, -y+1/2, z+1/2'
   '-y, x+1/2, z+1/4'
   'y+1/2, -x, z+3/4'
   '-x+1/2, y, -z+3/4'
   'x, -y+1/2, -z+1/4'
   'y+1/2, x+1/2, -z+1/2'
   '-y, -x, -z'
   '-x, -y+1/2, -z+1/4'
   'x+1/2, y, -z+3/4'
   'y, -x, -z'
   '-y+1/2, x+1/2, -z+1/2'
   'x+1/2, -y+1/2, z+1/2'
   '-x, y, z'
   '-y+1/2, -x, z+3/4'
   'y, x+1/2, z+1/4'
   'x+1/2, y+1/2, z+1/2'
   '-x, -y, z'
   '-y+1/2, x, z+3/4'
   'y, -x+1/2, z+1/4'
   '-x, y+1/2, -z+1/4'
   'x+1/2, -y, -z+3/4'
   'y, x, -z'
   '-y+1/2, -x+1/2, -z+1/2'
   '-x+1/2, -y, -z+3/4'
   'x, y+1/2, -z+1/4'
   'y+1/2, -x+1/2, -z+1/2'
   '-y, x, -z'
   'x, -y, z'
   '-x+1/2, y+1/2, z+1/2'
   '-y, -x+1/2, z+1/4'
   'y+1/2, x, z+3/4'

loop_
   _atom_site_label
   _atom_site_occupancy
   _atom_site_fract_x
   _atom_site_fract_y
   _atom_site_fract_z
   _atom_site_thermal_displace_type
   _atom_site_B_iso_or_equiv
   _atom_site_type_symbol
   Ti      1    0            0            0           Biso  0.39  Ti
   O       1    0            0            0.2081(2)   Biso  0.61  O
