#======================================================================

# CRYSTAL DATA

#----------------------------------------------------------------------

_pd_phase_name                         'HgS'
_cell_length_a                         4.145(2)
_cell_length_b                         4.145(2)
_cell_length_c                         9.496(2)
_cell_angle_alpha                      90
_cell_angle_beta                       90
_cell_angle_gamma                      120
_symmetry_space_group_name_H-M         'P 32 2 1'
_symmetry_Int_Tables_number            154

loop_
_symmetry_equiv_pos_as_xyz
   'x, y, z'
   '-y, x-y, z+2/3'
   '-x+y, -x, z+1/3'
   'y, x, -z'
   'x-y, -y, -z+1/3'
   '-x, -x+y, -z+2/3'

loop_
   _atom_site_label
   _atom_site_occupancy
   _atom_site_fract_x
   _atom_site_fract_y
   _atom_site_fract_z
   _atom_site_thermal_displace_type
   _atom_site_B_iso_or_equiv
   _atom_site_type_symbol
   Hg       1    0.7198(5)    0            0.33333     Biso  2.2  Hg
   S        1    0.489(3)     0            0.83333     Biso  1.6  S
